<?xml version="1.0" encoding="UTF-8"?>

<!-- generated on 2026-03-25 21:07:23 by Eclipse SUMO netconvert Version 1.12.0
<configuration xmlns:xsi="http://www.w3.org/2001/XMLSchema-instance" xsi:noNamespaceSchemaLocation="http://sumo.dlr.de/xsd/netconvertConfiguration.xsd">

    <input>
        <osm-files value="map.osm"/>
    </input>

    <output>
        <output-file value="siping.net.xml"/>
    </output>

    <projection>
        <proj.utm value="true"/>
    </projection>

    <report>
        <aggregate-warnings value="5"/>
    </report>

</configuration>
-->

<net version="1.9" junctionCornerDetail="5" limitTurnSpeed="5.50" xmlns:xsi="http://www.w3.org/2001/XMLSchema-instance" xsi:noNamespaceSchemaLocation="http://sumo.dlr.de/xsd/net_file.xsd">

    <location netOffset="-355915.10,-3461040.66" convBoundary="0.00,0.00,2258.67,1849.27" origBoundary="121.486238,31.274908,121.517505,31.291666" projParameter="+proj=utm +zone=51 +ellps=WGS84 +datum=WGS84 +units=m +no_defs"/>

    <type id="highway.bridleway" priority="1" numLanes="1" speed="2.78" allow="pedestrian" oneway="1" width="2.00"/>
    <type id="highway.bus_guideway" priority="1" numLanes="1" speed="27.78" allow="bus" oneway="1"/>
    <type id="highway.cycleway" priority="1" numLanes="1" speed="5.56" allow="bicycle" oneway="0" width="1.00"/>
    <type id="highway.footway" priority="1" numLanes="1" speed="2.78" allow="pedestrian" oneway="1" width="2.00"/>
    <type id="highway.ford" priority="1" numLanes="1" speed="2.78" allow="army" oneway="0"/>
    <type id="highway.living_street" priority="2" numLanes="1" speed="2.78" disallow="tram rail_urban rail rail_electric rail_fast ship" oneway="0"/>
    <type id="highway.motorway" priority="14" numLanes="2" speed="39.44" allow="private emergency authority army vip passenger hov taxi bus coach delivery truck trailer motorcycle evehicle custom1 custom2" oneway="1"/>
    <type id="highway.motorway_link" priority="9" numLanes="1" speed="22.22" allow="private emergency authority army vip passenger hov taxi bus coach delivery truck trailer motorcycle evehicle custom1 custom2" oneway="1"/>
    <type id="highway.path" priority="1" numLanes="1" speed="5.56" allow="pedestrian bicycle" oneway="0" width="2.00"/>
    <type id="highway.pedestrian" priority="1" numLanes="1" speed="2.78" allow="pedestrian" oneway="1" width="2.00"/>
    <type id="highway.primary" priority="12" numLanes="2" speed="27.78" disallow="tram rail_urban rail rail_electric rail_fast ship" oneway="0"/>
    <type id="highway.primary_link" priority="7" numLanes="1" speed="22.22" disallow="tram rail_urban rail rail_electric rail_fast ship" oneway="0"/>
    <type id="highway.raceway" priority="15" numLanes="2" speed="83.33" allow="vip" oneway="0"/>
    <type id="highway.residential" priority="3" numLanes="1" speed="13.89" disallow="tram rail_urban rail rail_electric rail_fast ship" oneway="0"/>
    <type id="highway.secondary" priority="11" numLanes="1" speed="27.78" disallow="tram rail_urban rail rail_electric rail_fast ship" oneway="0"/>
    <type id="highway.secondary_link" priority="6" numLanes="1" speed="22.22" disallow="tram rail_urban rail rail_electric rail_fast ship" oneway="0"/>
    <type id="highway.service" priority="1" numLanes="1" speed="5.56" allow="pedestrian delivery bicycle" oneway="0"/>
    <type id="highway.stairs" priority="1" numLanes="1" speed="1.39" allow="pedestrian" oneway="1" width="2.00"/>
    <type id="highway.step" priority="1" numLanes="1" speed="1.39" allow="pedestrian" oneway="1" width="2.00"/>
    <type id="highway.steps" priority="1" numLanes="1" speed="1.39" allow="pedestrian" oneway="1" width="2.00"/>
    <type id="highway.tertiary" priority="10" numLanes="1" speed="22.22" disallow="tram rail_urban rail rail_electric rail_fast ship" oneway="0"/>
    <type id="highway.tertiary_link" priority="5" numLanes="1" speed="22.22" disallow="tram rail_urban rail rail_electric rail_fast ship" oneway="0"/>
    <type id="highway.track" priority="1" numLanes="1" speed="5.56" allow="pedestrian motorcycle moped bicycle" oneway="0"/>
    <type id="highway.trunk" priority="13" numLanes="2" speed="27.78" disallow="pedestrian bicycle tram rail_urban rail rail_electric rail_fast ship" oneway="0"/>
    <type id="highway.trunk_link" priority="8" numLanes="1" speed="22.22" disallow="pedestrian bicycle tram rail_urban rail rail_electric rail_fast ship" oneway="0"/>
    <type id="highway.unclassified" priority="4" numLanes="1" speed="13.89" disallow="tram rail_urban rail rail_electric rail_fast ship" oneway="0"/>
    <type id="highway.unsurfaced" priority="1" numLanes="1" speed="8.33" disallow="tram rail_urban rail rail_electric rail_fast ship" oneway="0"/>
    <type id="railway.highspeed" priority="21" numLanes="1" speed="69.44" allow="rail_fast" oneway="1"/>
    <type id="railway.light_rail" priority="19" numLanes="1" speed="27.78" allow="rail_urban" oneway="1"/>
    <type id="railway.preserved" priority="16" numLanes="1" speed="27.78" allow="rail" oneway="1"/>
    <type id="railway.rail" priority="20" numLanes="1" speed="44.44" allow="rail" oneway="1"/>
    <type id="railway.subway" priority="18" numLanes="1" speed="27.78" allow="rail_urban" oneway="1"/>
    <type id="railway.tram" priority="17" numLanes="1" speed="13.89" allow="tram" oneway="1"/>

    <edge id=":10008544420_0" function="internal">
        <lane id=":10008544420_0_0" index="0" allow="pedestrian delivery bicycle" speed="5.56" length="6.23" shape="450.25,694.86 450.08,688.63"/>
    </edge>
    <edge id=":10008544420_1" function="internal">
        <lane id=":10008544420_1_0" index="0" allow="pedestrian delivery bicycle" speed="6.10" length="7.78" shape="450.25,694.86 450.61,693.48 451.77,692.47 453.72,691.83 456.48,691.54"/>
    </edge>
    <edge id=":10008544420_2" function="internal">
        <lane id=":10008544420_2_0" index="0" allow="pedestrian delivery bicycle" speed="3.65" length="4.67" shape="450.25,694.86 451.02,693.64 451.81,693.22 452.62,693.59 453.45,694.77"/>
    </edge>
    <edge id=":10008544420_3" function="internal">
        <lane id=":10008544420_3_0" index="0" allow="pedestrian delivery bicycle" speed="5.04" length="5.00" shape="453.28,688.54 453.51,689.89 454.12,690.84 455.11,691.39 456.48,691.54"/>
    </edge>
    <edge id=":10008544420_4" function="internal">
        <lane id=":10008544420_4_0" index="0" allow="pedestrian delivery bicycle" speed="5.56" length="6.24" shape="453.28,688.54 453.45,694.77"/>
    </edge>
    <edge id=":10008544420_5" function="internal">
        <lane id=":10008544420_5_0" index="0" allow="pedestrian delivery bicycle" speed="3.65" length="4.67" shape="453.28,688.54 452.52,689.76 451.73,690.19 450.92,689.81 450.08,688.63"/>
    </edge>
    <edge id=":10008544420_6" function="internal">
        <lane id=":10008544420_6_0" index="0" allow="pedestrian delivery bicycle" speed="5.06" length="5.02" shape="447.06,691.85 448.42,691.61 449.37,690.99 449.93,690.00 450.08,688.63"/>
    </edge>
    <edge id=":10008544420_7" function="internal">
        <lane id=":10008544420_7_0" index="0" disallow="tram rail_urban rail rail_electric rail_fast ship" speed="22.22" length="9.42" shape="447.06,691.85 456.48,691.54"/>
    </edge>
    <edge id=":10008544420_8" function="internal">
        <lane id=":10008544420_8_0" index="0" allow="pedestrian delivery bicycle" speed="6.07" length="7.77" shape="447.06,691.85 449.83,691.95 451.82,692.48 453.02,693.42 453.45,694.77"/>
    </edge>
    <edge id=":10009264781_0" function="internal">
        <lane id=":10009264781_0_0" index="0" disallow="tram rail_urban rail rail_electric rail_fast ship" speed="22.22" length="9.40" shape="235.74,1041.76 226.34,1042.18"/>
    </edge>
    <edge id=":10009264781_1" function="internal">
        <lane id=":10009264781_1_0" index="0" allow="pedestrian delivery bicycle" speed="6.03" length="7.89" shape="235.74,1041.76 232.95,1041.67 230.96,1041.14 229.77,1040.15 229.38,1038.71"/>
    </edge>
    <edge id=":10009264781_2" function="internal">
        <lane id=":10009264781_2_0" index="0" allow="pedestrian delivery bicycle" speed="6.22" length="7.83" shape="232.58,1038.72 232.18,1040.13 231.01,1041.17 229.06,1041.86 226.34,1042.18"/>
    </edge>
    <edge id=":10009264781_3" function="internal">
        <lane id=":10009264781_3_0" index="0" allow="pedestrian delivery bicycle" speed="3.65" length="4.67" shape="232.58,1038.72 231.77,1039.92 230.97,1040.31 230.17,1039.91 229.38,1038.71"/>
    </edge>
    <edge id=":10009264785_0" function="internal">
        <lane id=":10009264785_0_0" index="0" allow="pedestrian delivery bicycle" speed="3.65" length="4.67" shape="496.71,923.34 497.92,924.12 498.33,924.91 497.94,925.72 496.76,926.54"/>
    </edge>
    <edge id=":10009264788_0" function="internal">
        <lane id=":10009264788_0_0" index="0" allow="pedestrian delivery bicycle" speed="3.65" length="4.67" shape="380.56,874.50 379.33,873.74 378.91,872.95 379.28,872.14 380.45,871.30"/>
    </edge>
    <edge id=":10009264793_0" function="internal">
        <lane id=":10009264793_0_0" index="0" allow="pedestrian delivery bicycle" speed="5.12" length="5.10" shape="236.16,955.88 234.75,956.10 233.74,956.69 233.13,957.66 232.92,959.01"/>
    </edge>
    <edge id=":10009264793_1" function="internal">
        <lane id=":10009264793_1_0" index="0" allow="pedestrian delivery bicycle" speed="5.56" length="10.29" shape="236.16,955.88 233.35,955.54 231.35,954.37 230.15,952.39 229.76,949.59"/>
    </edge>
    <edge id=":10009264793_2" function="internal">
        <lane id=":10009264793_2_0" index="0" allow="pedestrian delivery bicycle" speed="3.65" length="4.67" shape="236.16,955.88 234.94,955.10 234.52,954.31 234.91,953.50 236.09,952.68"/>
    </edge>
    <edge id=":10009264793_3" function="internal">
        <lane id=":10009264793_3_0" index="0" allow="pedestrian delivery bicycle" speed="5.01" length="5.03" shape="232.96,949.60 233.15,950.97 233.74,951.94 234.72,952.51 236.09,952.68"/>
    </edge>
    <edge id=":10009264793_4" function="internal">
        <lane id=":10009264793_4_0" index="0" allow="pedestrian delivery bicycle" speed="5.56" length="9.40" shape="232.96,949.60 232.92,959.01"/>
    </edge>
    <edge id=":10009264793_5" function="internal">
        <lane id=":10009264793_5_0" index="0" allow="pedestrian delivery bicycle" speed="3.65" length="4.67" shape="232.96,949.60 232.16,950.80 231.36,951.20 230.56,950.79 229.76,949.59"/>
    </edge>
    <edge id=":10009264793_6" function="internal">
        <lane id=":10009264793_6_0" index="0" allow="pedestrian delivery bicycle" speed="5.56" length="9.40" shape="229.72,958.99 229.76,949.59"/>
    </edge>
    <edge id=":10009264793_7" function="internal">
        <lane id=":10009264793_7_0" index="0" allow="pedestrian delivery bicycle" speed="5.56" length="10.17" shape="229.72,958.99 230.13,956.28 231.33,954.32 233.31,953.12 236.09,952.68"/>
    </edge>
    <edge id=":10009264793_8" function="internal">
        <lane id=":10009264793_8_0" index="0" allow="pedestrian delivery bicycle" speed="3.65" length="4.67" shape="229.72,958.99 230.53,957.79 231.33,957.40 232.13,957.80 232.92,959.01"/>
    </edge>
    <edge id=":10009264795_0" function="internal">
        <lane id=":10009264795_0_0" index="0" allow="pedestrian delivery bicycle" speed="5.23" length="5.31" shape="463.85,951.84 462.42,952.08 461.39,952.71 460.76,953.74 460.54,955.17"/>
    </edge>
    <edge id=":10009264795_1" function="internal">
        <lane id=":10009264795_1_0" index="0" allow="pedestrian delivery bicycle" speed="5.56" length="9.62" shape="463.85,951.84 454.23,952.03"/>
    </edge>
    <edge id=":10009264795_2" function="internal">
        <lane id=":10009264795_2_0" index="0" allow="pedestrian delivery bicycle" speed="5.56" length="10.33" shape="463.85,951.84 461.02,951.50 459.02,950.32 457.84,948.33 457.47,945.51"/>
    </edge>
    <edge id=":10009264795_3" function="internal">
        <lane id=":10009264795_3_0" index="0" allow="pedestrian delivery bicycle" speed="3.65" length="4.67" shape="463.85,951.84 462.63,951.07 462.22,950.28 462.60,949.47 463.78,948.64"/>
    </edge>
    <edge id=":10009264795_4" function="internal">
        <lane id=":10009264795_4_0" index="0" allow="pedestrian delivery bicycle" speed="5.00" length="5.04" shape="460.67,945.55 460.85,946.93 461.43,947.90 462.41,948.47 463.78,948.64"/>
    </edge>
    <edge id=":10009264795_5" function="internal">
        <lane id=":10009264795_5_0" index="0" allow="pedestrian delivery bicycle" speed="5.56" length="9.62" shape="460.67,945.55 460.54,955.17"/>
    </edge>
    <edge id=":10009264795_6" function="internal">
        <lane id=":10009264795_6_0" index="0" allow="pedestrian delivery bicycle" speed="5.56" length="10.34" shape="460.67,945.55 460.24,948.34 459.02,950.35 457.02,951.58 454.23,952.03"/>
    </edge>
    <edge id=":10009264795_7" function="internal">
        <lane id=":10009264795_7_0" index="0" allow="pedestrian delivery bicycle" speed="3.65" length="4.67" shape="460.67,945.55 459.85,946.74 459.05,947.13 458.25,946.72 457.47,945.51"/>
    </edge>
    <edge id=":10009264795_8" function="internal">
        <lane id=":10009264795_8_0" index="0" allow="pedestrian delivery bicycle" speed="5.22" length="5.30" shape="454.17,948.83 455.60,948.60 456.62,947.97 457.25,946.94 457.47,945.51"/>
    </edge>
    <edge id=":10009264795_9" function="internal">
        <lane id=":10009264795_9_0" index="0" allow="pedestrian delivery bicycle" speed="5.56" length="9.61" shape="454.17,948.83 463.78,948.64"/>
    </edge>
    <edge id=":10009264795_10" function="internal">
        <lane id=":10009264795_10_0" index="0" allow="pedestrian delivery bicycle" speed="5.56" length="10.32" shape="454.17,948.83 456.99,949.18 458.99,950.35 460.17,952.35 460.54,955.17"/>
    </edge>
    <edge id=":10009264795_11" function="internal">
        <lane id=":10009264795_11_0" index="0" allow="pedestrian delivery bicycle" speed="3.65" length="4.67" shape="454.17,948.83 455.39,949.61 455.80,950.40 455.42,951.21 454.23,952.03"/>
    </edge>
    <edge id=":10009264795_12" function="internal">
        <lane id=":10009264795_12_0" index="0" allow="pedestrian delivery bicycle" speed="5.01" length="5.04" shape="457.34,955.12 457.16,953.75 456.58,952.77 455.61,952.20 454.23,952.03"/>
    </edge>
    <edge id=":10009264795_13" function="internal">
        <lane id=":10009264795_13_0" index="0" allow="pedestrian delivery bicycle" speed="5.56" length="9.62" shape="457.34,955.12 457.47,945.51"/>
    </edge>
    <edge id=":10009264795_14" function="internal">
        <lane id=":10009264795_14_0" index="0" allow="pedestrian delivery bicycle" speed="5.56" length="10.34" shape="457.34,955.12 457.77,952.34 458.99,950.33 461.00,949.10 463.78,948.64"/>
    </edge>
    <edge id=":10009264795_15" function="internal">
        <lane id=":10009264795_15_0" index="0" allow="pedestrian delivery bicycle" speed="3.65" length="4.67" shape="457.34,955.12 458.16,953.93 458.96,953.55 459.76,953.96 460.54,955.17"/>
    </edge>
    <edge id=":10009264796_0" function="internal">
        <lane id=":10009264796_0_0" index="0" allow="pedestrian delivery bicycle" speed="3.65" length="4.67" shape="496.31,947.98 497.53,948.75 497.95,949.54 497.56,950.35 496.38,951.18"/>
    </edge>
    <edge id=":10009264797_0" function="internal">
        <lane id=":10009264797_0_0" index="0" allow="pedestrian delivery bicycle" speed="3.65" length="4.67" shape="361.63,978.65 360.42,977.87 360.01,977.07 360.40,976.27 361.59,975.45"/>
    </edge>
    <edge id=":10009264798_0" function="internal">
        <lane id=":10009264798_0_0" index="0" disallow="tram rail_urban rail rail_electric rail_fast ship" speed="22.22" length="9.42" shape="514.08,970.35 513.53,979.75"/>
    </edge>
    <edge id=":10009264798_1" function="internal">
        <lane id=":10009264798_1_0" index="0" allow="pedestrian delivery bicycle" speed="6.28" length="7.88" shape="514.08,970.35 513.72,973.06 513.01,975.00 511.93,976.18 510.50,976.58"/>
    </edge>
    <edge id=":10009264798_2" function="internal">
        <lane id=":10009264798_2_0" index="0" allow="pedestrian delivery bicycle" speed="6.01" length="7.96" shape="510.46,973.38 511.94,973.76 512.95,974.95 513.48,976.95 513.53,979.75"/>
    </edge>
    <edge id=":10009264798_3" function="internal">
        <lane id=":10009264798_3_0" index="0" allow="pedestrian delivery bicycle" speed="3.65" length="4.67" shape="510.46,973.38 511.67,974.17 512.08,974.96 511.69,975.77 510.50,976.58"/>
    </edge>
    <edge id=":10009264799_0" function="internal">
        <lane id=":10009264799_0_0" index="0" allow="pedestrian delivery bicycle" speed="3.65" length="4.67" shape="359.27,898.45 358.06,897.66 357.65,896.87 358.04,896.06 359.23,895.25"/>
    </edge>
    <edge id=":10009264800_0" function="internal">
        <lane id=":10009264800_0_0" index="0" allow="pedestrian delivery bicycle" speed="3.65" length="4.67" shape="502.43,893.29 503.64,894.07 504.06,894.87 503.67,895.67 502.48,896.49"/>
    </edge>
    <edge id=":10009264801_0" function="internal">
        <lane id=":10009264801_0_0" index="0" allow="pedestrian delivery bicycle" speed="3.65" length="4.67" shape="503.79,867.27 505.02,868.03 505.44,868.82 505.07,869.63 503.89,870.47"/>
    </edge>
    <edge id=":10009264802_0" function="internal">
        <lane id=":10009264802_0_0" index="0" allow="pedestrian delivery bicycle" speed="5.19" length="5.25" shape="464.16,926.96 462.74,927.18 461.72,927.80 461.10,928.82 460.88,930.24"/>
    </edge>
    <edge id=":10009264802_1" function="internal">
        <lane id=":10009264802_1_0" index="0" allow="pedestrian delivery bicycle" speed="5.56" length="9.58" shape="464.16,926.96 454.58,927.10"/>
    </edge>
    <edge id=":10009264802_2" function="internal">
        <lane id=":10009264802_2_0" index="0" allow="pedestrian delivery bicycle" speed="5.56" length="10.29" shape="464.16,926.96 461.35,926.60 459.36,925.42 458.18,923.42 457.82,920.61"/>
    </edge>
    <edge id=":10009264802_3" function="internal">
        <lane id=":10009264802_3_0" index="0" allow="pedestrian delivery bicycle" speed="3.65" length="4.67" shape="464.16,926.96 462.95,926.18 462.54,925.38 462.93,924.58 464.12,923.76"/>
    </edge>
    <edge id=":10009264802_4" function="internal">
        <lane id=":10009264802_4_0" index="0" allow="pedestrian delivery bicycle" speed="5.01" length="5.03" shape="461.02,920.66 461.19,922.03 461.77,923.01 462.74,923.58 464.12,923.76"/>
    </edge>
    <edge id=":10009264802_5" function="internal">
        <lane id=":10009264802_5_0" index="0" allow="pedestrian delivery bicycle" speed="5.56" length="9.58" shape="461.02,920.66 460.88,930.24"/>
    </edge>
    <edge id=":10009264802_6" function="internal">
        <lane id=":10009264802_6_0" index="0" allow="pedestrian delivery bicycle" speed="5.56" length="10.32" shape="461.02,920.66 460.58,923.44 459.36,925.44 457.36,926.66 454.58,927.10"/>
    </edge>
    <edge id=":10009264802_7" function="internal">
        <lane id=":10009264802_7_0" index="0" allow="pedestrian delivery bicycle" speed="3.65" length="4.67" shape="461.02,920.66 460.20,921.85 459.39,922.24 458.60,921.83 457.82,920.61"/>
    </edge>
    <edge id=":10009264802_8" function="internal">
        <lane id=":10009264802_8_0" index="0" allow="pedestrian delivery bicycle" speed="5.20" length="5.27" shape="454.53,923.90 455.95,923.68 456.97,923.05 457.59,922.03 457.82,920.61"/>
    </edge>
    <edge id=":10009264802_9" function="internal">
        <lane id=":10009264802_9_0" index="0" allow="pedestrian delivery bicycle" speed="5.56" length="9.59" shape="454.53,923.90 464.12,923.76"/>
    </edge>
    <edge id=":10009264802_10" function="internal">
        <lane id=":10009264802_10_0" index="0" allow="pedestrian delivery bicycle" speed="5.56" length="10.31" shape="454.53,923.90 457.34,924.26 459.34,925.43 460.52,927.43 460.88,930.24"/>
    </edge>
    <edge id=":10009264802_11" function="internal">
        <lane id=":10009264802_11_0" index="0" allow="pedestrian delivery bicycle" speed="3.65" length="4.67" shape="454.53,923.90 455.74,924.68 456.15,925.47 455.77,926.28 454.58,927.10"/>
    </edge>
    <edge id=":10009264802_12" function="internal">
        <lane id=":10009264802_12_0" index="0" allow="pedestrian delivery bicycle" speed="5.01" length="5.04" shape="457.68,930.20 457.51,928.82 456.93,927.85 455.95,927.27 454.58,927.10"/>
    </edge>
    <edge id=":10009264802_13" function="internal">
        <lane id=":10009264802_13_0" index="0" allow="pedestrian delivery bicycle" speed="5.56" length="9.58" shape="457.68,930.20 457.82,920.61"/>
    </edge>
    <edge id=":10009264802_14" function="internal">
        <lane id=":10009264802_14_0" index="0" allow="pedestrian delivery bicycle" speed="5.56" length="10.32" shape="457.68,930.20 458.12,927.41 459.34,925.41 461.33,924.20 464.12,923.76"/>
    </edge>
    <edge id=":10009264802_15" function="internal">
        <lane id=":10009264802_15_0" index="0" allow="pedestrian delivery bicycle" speed="3.65" length="4.67" shape="457.68,930.20 458.50,929.01 459.31,928.62 460.10,929.03 460.88,930.24"/>
    </edge>
    <edge id=":10009264803_0" function="internal">
        <lane id=":10009264803_0_0" index="0" allow="pedestrian delivery bicycle" speed="5.19" length="5.25" shape="464.58,897.01 463.16,897.23 462.14,897.85 461.52,898.87 461.30,900.28"/>
    </edge>
    <edge id=":10009264803_1" function="internal">
        <lane id=":10009264803_1_0" index="0" allow="pedestrian delivery bicycle" speed="5.56" length="9.58" shape="464.58,897.01 455.00,897.14"/>
    </edge>
    <edge id=":10009264803_2" function="internal">
        <lane id=":10009264803_2_0" index="0" allow="pedestrian delivery bicycle" speed="5.56" length="10.30" shape="464.58,897.01 461.77,896.64 459.78,895.46 458.60,893.47 458.24,890.66"/>
    </edge>
    <edge id=":10009264803_3" function="internal">
        <lane id=":10009264803_3_0" index="0" allow="pedestrian delivery bicycle" speed="3.65" length="4.67" shape="464.58,897.01 463.37,896.22 462.96,895.43 463.35,894.62 464.54,893.81"/>
    </edge>
    <edge id=":10009264803_4" function="internal">
        <lane id=":10009264803_4_0" index="0" allow="pedestrian delivery bicycle" speed="5.01" length="5.03" shape="461.43,890.71 461.61,892.08 462.19,893.05 463.16,893.63 464.54,893.81"/>
    </edge>
    <edge id=":10009264803_5" function="internal">
        <lane id=":10009264803_5_0" index="0" allow="pedestrian delivery bicycle" speed="5.56" length="9.58" shape="461.43,890.71 461.30,900.28"/>
    </edge>
    <edge id=":10009264803_6" function="internal">
        <lane id=":10009264803_6_0" index="0" allow="pedestrian delivery bicycle" speed="5.56" length="10.31" shape="461.43,890.71 461.00,893.49 459.78,895.49 457.78,896.70 455.00,897.14"/>
    </edge>
    <edge id=":10009264803_7" function="internal">
        <lane id=":10009264803_7_0" index="0" allow="pedestrian delivery bicycle" speed="3.65" length="4.67" shape="461.43,890.71 460.62,891.89 459.81,892.28 459.02,891.87 458.24,890.66"/>
    </edge>
    <edge id=":10009264803_8" function="internal">
        <lane id=":10009264803_8_0" index="0" allow="pedestrian delivery bicycle" speed="5.19" length="5.25" shape="454.96,893.94 456.37,893.72 457.39,893.10 458.01,892.08 458.24,890.66"/>
    </edge>
    <edge id=":10009264803_9" function="internal">
        <lane id=":10009264803_9_0" index="0" allow="pedestrian delivery bicycle" speed="5.56" length="9.58" shape="454.96,893.94 464.54,893.81"/>
    </edge>
    <edge id=":10009264803_10" function="internal">
        <lane id=":10009264803_10_0" index="0" allow="pedestrian delivery bicycle" speed="5.56" length="10.30" shape="454.96,893.94 457.77,894.30 459.76,895.48 460.94,897.48 461.30,900.28"/>
    </edge>
    <edge id=":10009264803_11" function="internal">
        <lane id=":10009264803_11_0" index="0" allow="pedestrian delivery bicycle" speed="3.65" length="4.67" shape="454.96,893.94 456.17,894.72 456.58,895.52 456.19,896.32 455.00,897.14"/>
    </edge>
    <edge id=":10009264803_12" function="internal">
        <lane id=":10009264803_12_0" index="0" allow="pedestrian delivery bicycle" speed="5.01" length="5.03" shape="458.10,900.24 457.92,898.87 457.35,897.89 456.37,897.32 455.00,897.14"/>
    </edge>
    <edge id=":10009264803_13" function="internal">
        <lane id=":10009264803_13_0" index="0" allow="pedestrian delivery bicycle" speed="5.56" length="9.58" shape="458.10,900.24 458.24,890.66"/>
    </edge>
    <edge id=":10009264803_14" function="internal">
        <lane id=":10009264803_14_0" index="0" allow="pedestrian delivery bicycle" speed="5.56" length="10.31" shape="458.10,900.24 458.54,897.46 459.75,895.46 461.75,894.24 464.54,893.81"/>
    </edge>
    <edge id=":10009264803_15" function="internal">
        <lane id=":10009264803_15_0" index="0" allow="pedestrian delivery bicycle" speed="3.65" length="4.67" shape="458.10,900.24 458.92,899.05 459.72,898.66 460.52,899.07 461.30,900.28"/>
    </edge>
    <edge id=":10009264804_0" function="internal">
        <lane id=":10009264804_0_0" index="0" allow="pedestrian delivery bicycle" speed="5.20" length="5.19" shape="464.72,871.75 463.40,872.00 462.44,872.66 461.86,873.71 461.65,875.18"/>
    </edge>
    <edge id=":10009264804_1" function="internal">
        <lane id=":10009264804_1_0" index="0" allow="pedestrian delivery bicycle" speed="5.56" length="9.41" shape="464.72,871.75 455.32,872.06"/>
    </edge>
    <edge id=":10009264804_2" function="internal">
        <lane id=":10009264804_2_0" index="0" allow="pedestrian delivery bicycle" speed="3.65" length="4.67" shape="464.72,871.75 463.50,870.99 463.07,870.20 463.45,869.39 464.62,868.55"/>
    </edge>
    <edge id=":10009264804_3" function="internal">
        <lane id=":10009264804_3_0" index="0" allow="pedestrian delivery bicycle" speed="5.56" length="9.41" shape="455.22,868.86 464.62,868.55"/>
    </edge>
    <edge id=":10009264804_4" function="internal">
        <lane id=":10009264804_4_0" index="0" allow="pedestrian delivery bicycle" speed="5.56" length="10.39" shape="455.22,868.86 458.07,869.18 460.09,870.33 461.28,872.33 461.65,875.18"/>
    </edge>
    <edge id=":10009264804_5" function="internal">
        <lane id=":10009264804_5_0" index="0" allow="pedestrian delivery bicycle" speed="3.65" length="4.67" shape="455.22,868.86 456.44,869.62 456.87,870.41 456.49,871.22 455.32,872.06"/>
    </edge>
    <edge id=":10009264804_6" function="internal">
        <lane id=":10009264804_6_0" index="0" allow="pedestrian delivery bicycle" speed="4.99" length="5.06" shape="458.45,875.13 458.27,873.75 457.69,872.77 456.71,872.21 455.32,872.06"/>
    </edge>
    <edge id=":10009264804_7" function="internal">
        <lane id=":10009264804_7_0" index="0" allow="pedestrian delivery bicycle" speed="5.56" length="10.18" shape="458.45,875.13 458.87,872.33 460.04,870.30 461.95,869.04 464.62,868.55"/>
    </edge>
    <edge id=":10009264804_8" function="internal">
        <lane id=":10009264804_8_0" index="0" allow="pedestrian delivery bicycle" speed="3.65" length="4.67" shape="458.45,875.13 459.27,873.94 460.07,873.55 460.87,873.96 461.65,875.18"/>
    </edge>
    <edge id=":10009264805_0" function="internal">
        <lane id=":10009264805_0_0" index="0" allow="pedestrian delivery bicycle" speed="5.56" length="9.40" shape="463.47,977.24 454.07,977.37"/>
    </edge>
    <edge id=":10009264805_1" function="internal">
        <lane id=":10009264805_1_0" index="0" allow="pedestrian delivery bicycle" speed="5.56" length="10.30" shape="463.47,977.24 460.66,976.87 458.66,975.69 457.49,973.70 457.12,970.89"/>
    </edge>
    <edge id=":10009264805_2" function="internal">
        <lane id=":10009264805_2_0" index="0" allow="pedestrian delivery bicycle" speed="3.65" length="4.67" shape="463.47,977.24 462.26,976.45 461.85,975.66 462.23,974.85 463.42,974.04"/>
    </edge>
    <edge id=":10009264805_3" function="internal">
        <lane id=":10009264805_3_0" index="0" allow="pedestrian delivery bicycle" speed="5.01" length="5.03" shape="460.32,970.93 460.50,972.31 461.08,973.28 462.05,973.86 463.42,974.04"/>
    </edge>
    <edge id=":10009264805_4" function="internal">
        <lane id=":10009264805_4_0" index="0" allow="pedestrian delivery bicycle" speed="5.56" length="10.17" shape="460.32,970.93 459.90,973.72 458.71,975.71 456.77,976.93 454.07,977.37"/>
    </edge>
    <edge id=":10009264805_5" function="internal">
        <lane id=":10009264805_5_0" index="0" allow="pedestrian delivery bicycle" speed="3.65" length="4.67" shape="460.32,970.93 459.51,972.12 458.70,972.51 457.91,972.10 457.12,970.89"/>
    </edge>
    <edge id=":10009264805_6" function="internal">
        <lane id=":10009264805_6_0" index="0" allow="pedestrian delivery bicycle" speed="5.13" length="5.11" shape="454.02,974.17 455.36,973.95 456.33,973.33 456.91,972.31 457.12,970.89"/>
    </edge>
    <edge id=":10009264805_7" function="internal">
        <lane id=":10009264805_7_0" index="0" allow="pedestrian delivery bicycle" speed="5.56" length="9.40" shape="454.02,974.17 463.42,974.04"/>
    </edge>
    <edge id=":10009264805_8" function="internal">
        <lane id=":10009264805_8_0" index="0" allow="pedestrian delivery bicycle" speed="3.65" length="4.67" shape="454.02,974.17 455.23,974.95 455.64,975.74 455.26,976.55 454.07,977.37"/>
    </edge>
    <edge id=":10009264863_0" function="internal">